#======================================================================

# CRYSTAL DATA

#----------------------------------------------------------------------

data_VESTA_phase_1


_chemical_name_common                  'findsym-output'
_cell_length_a                         7.10087
_cell_length_b                         7.10087
_cell_length_c                         7.10087
_cell_angle_alpha                      105.63594
_cell_angle_beta                       105.63594
_cell_angle_gamma                      105.63594
_space_group_name_H-M_alt              'R 3 c'
_space_group_IT_number                 161

loop_
_space_group_symop_operation_xyz
   'x, y, z'
   'z, x, y'
   'y, z, x'
   'y+1/2, x+1/2, z+1/2'
   'x+1/2, z+1/2, y+1/2'
   'z+1/2, y+1/2, x+1/2'

loop_
   _atom_site_label
   _atom_site_occupancy
   _atom_site_fract_x
   _atom_site_fract_y
   _atom_site_fract_z
   _atom_site_adp_type
   _atom_site_B_iso_or_equiv
   _atom_site_type_symbol
   Ag1        1.0     0.877840      0.204190      0.436610     Biso  1.000000 Ag
   As1        1.0     0.000000      0.000000      0.000000     Biso  1.000000 As
   Se1        1.0     0.259210      0.223200      0.560570     Biso  1.000000 Se
